22

C -5.507362 2.180710 0.093700
C -4.258924 1.517855 0.652616
N -3.030616 2.062159 0.044181
H -4.299973 0.432536 0.438579
H -4.279212 1.656562 1.761818
O -5.854130 3.329609 0.357233
O -6.205507 1.388475 -0.728417
H -6.990267 1.902001 -1.030094
C -2.865059 3.527247 0.123675
C -2.812470 4.030333 1.581680
H -3.673783 4.020645 -0.449631
H -1.901474 3.780082 -0.356465
C -1.859682 1.292764 0.499380
C -1.666773 0.035622 -0.373817
H -1.905920 0.992431 1.569347
H -0.951673 1.921084 0.398232
O -0.962060 -0.896167 -0.057485
O -2.343103 0.111885 -1.539111
H -2.816344 0.992929 -1.469165
O -4.010026 4.272754 2.157359
H -4.747595 4.097230 1.507603
O -1.770455 4.123294 2.198346
