22

C -4.417753 0.170365 0.179798
C -4.305708 1.601856 0.677019
N -3.142962 2.296251 0.091619
H -4.255217 1.559855 1.792531
H -5.219053 2.158164 0.391658
O -3.665964 -0.738893 0.523165
O -5.423634 -0.014059 -0.683266
H -5.415030 -0.964635 -0.941765
C -3.156433 3.716553 0.484306
C -4.044833 4.534894 -0.476123
H -2.125811 4.121504 0.424578
H -3.491909 3.890952 1.530407
C -1.836280 1.629510 0.265908
C -1.457519 1.465990 1.753514
H -1.069695 2.266931 -0.212762
H -1.849685 0.655843 -0.260876
O -0.827343 2.309335 2.358759
O -1.952496 0.366683 2.361560
H -2.473505 -0.182051 1.710487
O -4.301457 3.874722 -1.624926
H -3.837986 2.995906 -1.490031
O -4.438380 5.652929 -0.232429
