19

C -4.246480 1.507285 2.206627
C -4.033147 1.636444 0.638113
N -2.904444 2.360745 0.050554
H -4.946039 2.102601 0.203386
H -4.030660 0.580821 0.257731
O -3.608618 2.281777 2.980298
O -5.098570 0.618076 2.542450
C -3.024800 3.820590 0.043414
C -4.199916 4.516048 -0.758247
H -2.086940 4.201103 -0.412715
H -3.070813 4.239492 1.088264
C -1.599701 1.863437 0.488238
C -0.311622 2.028159 -0.421223
H -1.698880 0.764961 0.646384
H -1.322226 2.251969 1.510528
O 0.653759 1.272482 -0.064251
O -0.300187 2.874446 -1.361240
O -4.137575 5.788596 -0.738759
O -5.086915 3.812891 -1.330476
