19

C -5.637008 2.359601 -0.157145
C -4.376007 1.647855 0.481936
N -3.026228 2.062806 0.089767
H -4.459775 0.578084 0.195950
H -4.516004 1.699620 1.598469
O -6.744604 1.848819 0.214016
O -5.487115 3.341379 -0.945608
C -2.678218 3.451347 0.400548
C -2.279328 3.929482 1.861993
H -3.549468 4.059991 0.067133
H -1.824912 3.771998 -0.253859
C -1.973175 1.108555 0.440253
C -1.843199 -0.283001 -0.307519
H -1.962189 0.881726 1.545514
H -0.995100 1.615147 0.269559
O -0.708688 -0.842134 -0.133526
O -2.823166 -0.750709 -0.956659
O -1.726967 5.080026 1.897940
O -2.554278 3.185777 2.850111
