19

C -5.608051 2.208021 0.006933
C -4.270632 1.600652 0.597528
N -2.974753 2.092761 0.122577
H -4.296698 0.519527 0.344474
H -4.358696 1.677416 1.717993
O -6.658265 1.639000 0.452771
O -5.564653 3.170164 -0.817898
C -2.705310 3.508802 0.382062
C -2.264723 4.050749 1.809312
H -3.630644 4.050420 0.080819
H -1.908797 3.866196 -0.322810
C -1.840510 1.221727 0.433800
C -1.661061 -0.181987 -0.280453
H -1.744895 1.032996 1.542149
H -0.911758 1.785789 0.185065
O -0.485631 -0.663458 -0.151107
O -2.640254 -0.729111 -0.865145
O -1.791647 5.236384 1.789601
O -2.435520 3.315709 2.826964
