21

C -4.977313 1.714824 1.910457
C -4.353220 1.907193 0.493489
N -2.977125 2.297493 0.287181
H -5.024474 2.637265 -0.006959
H -4.523442 0.938096 -0.030993
O -6.191753 1.857106 2.023086
O -4.216658 1.336897 2.923523
H -3.171597 1.224635 2.779170
C -2.622070 3.675268 0.614426
C -1.543546 4.245430 -0.342261
H -2.292700 3.803724 1.680301
H -3.519031 4.303843 0.464759
C -1.925505 1.301817 0.462023
C -1.161692 1.525051 1.796932
H -1.196480 1.345261 -0.379487
H -2.389603 0.295361 0.467136
O -1.725879 1.139966 2.863567
O -0.072938 2.174583 1.733520
O -0.306211 3.765301 -0.223583
H -0.175746 3.092631 0.582340
O -1.832318 5.090916 -1.180805
