21

C -4.225395 1.888643 2.134909
C -4.155865 1.586260 0.635039
N -3.008766 2.141803 -0.074714
H -5.099313 1.976144 0.191041
H -4.147700 0.487142 0.491566
O -4.499824 3.045405 2.557184
O -4.663711 0.810988 2.863124
H -4.787427 1.181271 3.762769
C -2.777769 3.585772 0.094209
C -3.972790 4.463240 -0.322174
H -1.944810 3.862582 -0.581796
H -2.479660 3.845303 1.141637
C -1.796741 1.384036 0.232173
C -1.393101 1.304366 1.734234
H -0.939557 1.812224 -0.328064
H -1.921311 0.340150 -0.138333
O -0.253199 0.900520 2.011738
O -2.304030 1.660058 2.582217
O -4.968243 4.547330 0.566036
H -4.751217 3.982544 1.420906
O -4.003598 5.063942 -1.388273
