21

C -4.329088 -0.131512 0.051427
C -4.023293 1.238888 0.639385
N -2.885309 1.939066 0.078863
H -3.967958 1.088831 1.750157
H -4.943160 1.837411 0.461860
O -5.237721 -0.848951 0.440163
O -3.509975 -0.503604 -0.966975
H -3.830550 -1.400521 -1.208672
C -3.059633 3.399949 0.164532
C -1.879710 4.220414 -0.439859
H -3.212368 3.741477 1.224475
H -3.965224 3.662720 -0.418698
C -1.604181 1.421557 0.598743
C -1.417120 1.755001 2.101650
H -0.782315 1.847996 -0.008680
H -1.605105 0.320738 0.479637
O -1.731870 0.926479 2.965761
O -1.013281 2.977134 2.356709
O -0.781371 4.221153 0.263472
H -0.881478 3.589380 1.362047
O -2.048850 4.821665 -1.506006
