29

C 2.734786 2.990169 3.347605
C 3.477763 2.824193 2.003323
N 4.868435 2.395684 2.055662
H 3.449642 3.816817 1.499536
H 2.839200 2.140909 1.405641
O 1.497599 2.970555 3.355664
O 3.435613 3.230460 4.430365
H 4.449449 3.497105 4.230581
C 5.254230 1.055146 2.122471
C 4.123034 -0.025627 2.111522
H 2.281029 -1.632713 3.736440
H 6.330821 -1.570414 -0.637469
C 5.915818 3.380549 1.833220
C 6.252769 4.376534 2.971071
H 5.697766 3.982896 0.921320
H 6.841869 2.798455 1.644753
O 5.697173 4.207229 4.113838
O 7.086060 5.267779 2.674860
O 4.300861 -0.991045 1.336059
O 3.149750 0.175237 2.911032
O 6.448579 0.735031 2.146859
H 5.849556 -1.338914 -0.062109
H 1.969757 -2.250188 4.105272
O 7.026244 6.550880 5.143148
H 6.411662 5.790871 5.264070
H 7.256720 6.312223 4.205343
O 0.886014 0.945910 1.500734
H 1.609605 0.425787 1.942915
H 0.891319 1.729141 2.106410
