30

C 4.184175 3.705014 3.723598
C 6.033854 5.504218 1.379597
N 5.173791 6.409338 2.091148
H 6.612959 4.849651 2.068747
H 6.721143 6.012317 0.652085
O 4.204065 4.804697 4.396465
O 2.947334 3.152072 3.614808
H 3.020588 2.446043 2.899939
C 5.695935 7.499169 2.859678
C 6.684508 7.084550 3.983973
H 4.827144 7.988609 3.350315
H 6.228108 8.275244 2.253273
C 3.802416 6.327076 1.665261
C 3.855316 5.005835 0.852798
H 3.478507 7.138376 0.951662
H 0.620981 5.554533 2.252787
O 5.147956 4.663882 0.624215
O 2.928262 4.337564 0.440498
O 7.643921 7.805639 4.236378
O 6.428484 5.963814 4.629377
H 5.496219 5.477628 4.429076
O 3.710311 1.707305 1.496657
H 3.461419 2.431797 0.875707
H 4.500494 2.116896 1.977326
O 2.878756 6.372369 2.706473
H -0.128297 5.369074 2.248135
H 3.232581 5.764607 3.437710
O 5.171324 3.171001 3.152640
H 4.376434 -0.576481 -0.430783
H 4.217276 -0.011465 0.075266
