23

C -4.277079 1.517585 2.173422
C -4.179161 1.553069 0.646748
N -2.960155 2.197897 0.014049
H -5.070558 2.078310 0.253261
H -4.233120 0.513142 0.270899
O -5.239468 1.036302 2.713227
O -3.204704 2.059558 2.800889
H -3.356575 1.989611 3.773708
C -2.863399 3.681116 0.289021
C -3.914079 4.489608 -0.472978
H -1.863604 4.025432 -0.044062
H -2.944984 3.858571 1.375584
C -1.679380 1.441326 0.282333
C -1.601691 0.122842 -0.488549
H -1.578523 1.264876 1.367727
H -0.831858 2.077076 -0.044738
O -0.838091 -0.762382 -0.206417
O -2.467284 0.133781 -1.538322
H -2.363739 -0.707086 -2.042234
O -4.380029 3.778399 -1.535834
H -5.018476 4.338266 -2.036346
O -4.227356 5.612114 -0.176955
H -3.136992 2.108940 -1.011213
