23

C -4.214839 1.587646 2.202044
C -4.307428 1.481857 0.679425
N -3.125451 2.109768 -0.019064
H -5.225845 1.976201 0.308318
H -4.364881 0.421597 0.365939
O -3.294287 2.112868 2.799180
O -5.288286 1.017989 2.748535
H -5.220068 1.088841 3.729515
C -3.043592 3.606703 0.187876
C -4.133220 4.364453 -0.568850
H -2.062415 3.948178 -0.198699
H -3.081125 3.825026 1.269861
C -1.822594 1.393609 0.265942
C -1.739633 0.029248 -0.416645
H -1.692799 1.303129 1.359232
H -0.998232 2.021073 -0.128629
O -0.949416 -0.821224 -0.102165
O -2.636292 -0.049336 -1.438825
H -2.524292 -0.919063 -1.888838
O -4.637285 3.595787 -1.574263
H -5.299002 4.127277 -2.075183
O -4.447952 5.497938 -0.319242
H -3.323277 1.966232 -1.032908
