22

C -4.868976 1.373361 1.878960
C -4.579300 1.530956 0.385990
N -3.321747 2.223163 0.086977
H -5.411124 2.124942 -0.045448
H -4.568899 0.537488 -0.103901
O -5.240225 2.253579 2.623579
O -4.596042 0.097778 2.319867
H -4.787723 0.100734 3.287313
C -3.298817 3.655795 0.424820
C -3.886467 4.500445 -0.725623
H -2.248584 3.974014 0.583991
H -3.842003 3.897447 1.361938
C -2.078167 1.476675 0.323421
C -1.478849 1.639480 1.739084
H -1.303167 1.859962 -0.370712
H -2.259248 0.410403 0.073014
O -0.687794 2.520640 1.999510
O -1.905945 0.780328 2.698242
H -2.619009 0.198121 2.350996
O -4.006031 3.799321 -1.875455
O -4.180505 5.668148 -0.613275
H -3.672563 2.891098 -1.620764
