22

C -4.476288 1.276921 1.973987
C -4.256152 1.604162 0.489601
N -3.012332 2.233535 0.121573
H -5.109638 2.244748 0.180382
H -4.393492 0.652598 -0.068681
O -5.510270 0.837481 2.431502
O -3.364986 1.513247 2.727159
H -3.615680 1.275448 3.647920
C -2.900965 3.649725 0.441872
C -3.628525 4.545084 -0.586700
H -1.829674 3.942328 0.436583
H -3.295715 3.905030 1.449666
C -1.815357 1.443634 0.125516
C -0.962511 1.712827 -1.126278
H -2.081417 0.363698 0.105845
H -1.179376 1.576779 1.040072
O -1.334371 2.390566 -2.064942
O 0.255459 1.130544 -1.144471
H 0.407599 0.657560 -0.300004
O -3.512118 4.139758 -1.860673
O -4.242441 5.541046 -0.262056
H -2.901398 3.350738 -1.901931
