22

C -4.352683 1.783053 2.084097
C -4.146736 1.816660 0.567476
N -2.823231 2.233497 0.148990
H -4.912938 2.492655 0.130888
H -4.378082 0.812230 0.152864
O -3.528744 2.125311 2.910623
O -5.586726 1.321410 2.397073
H -5.646786 1.334346 3.378636
C -2.469761 3.636325 0.373928
C -1.740694 4.218046 -0.859839
H -1.853063 3.810249 1.280946
H -3.394420 4.233604 0.511081
C -1.758970 1.284457 0.461729
C -1.787233 0.009860 -0.374504
H -1.723847 0.988347 1.533602
H -0.780638 1.764355 0.241180
O -1.263983 -1.034238 -0.046413
O -2.433089 0.182397 -1.561354
H -2.351156 -0.674717 -2.036545
O -1.863152 3.438449 -1.951550
O -1.152063 5.277138 -0.843901
H -2.387848 2.647856 -1.626969
