20

C -4.958149 0.388746 0.488006
C -3.702187 1.250835 0.758971
N -2.941498 1.540184 -0.449188
H -3.065457 0.673288 1.469269
H -3.998704 2.177720 1.294870
O -6.055858 0.652184 0.994970
O -4.758770 -0.653589 -0.293823
H -3.668581 -0.790418 -0.500857
C -3.150964 2.889145 -0.970323
C -2.594606 4.128240 -0.146374
H -4.245666 3.053149 -1.111233
H -2.714445 2.950329 -1.994466
C -1.567408 1.079264 -0.457533
C -1.349115 -0.459215 -0.575256
H -0.973935 1.450349 0.418968
H -1.061704 1.522492 -1.343857
O -0.164419 -0.852135 -0.624662
O -2.387266 -1.227649 -0.621116
O -2.728314 5.237275 -0.738247
O -2.103692 3.881020 0.991830
