20

C -5.087915 0.259201 0.134189
C -4.025360 0.926924 1.039311
N -2.970514 1.588792 0.284531
H -3.583529 0.116852 1.665582
H -4.529781 1.620618 1.745515
O -6.300282 0.369726 0.356849
O -4.602852 -0.453368 -0.862913
H -3.493606 -0.551923 -0.776251
C -3.110826 3.041940 0.221405
C -2.890072 3.894724 1.543376
H -4.130060 3.288207 -0.160107
H -2.410058 3.438309 -0.550699
C -1.624510 1.106186 0.521755
C -1.277021 -0.301476 -0.048973
H -1.338277 1.123703 1.605748
H -0.915525 1.809246 0.032890
O -2.202805 -0.966693 -0.657904
O -0.103690 -0.696780 0.118237
O -2.723565 3.247510 2.616748
O -2.924455 5.144378 1.358078
