20

C -5.233905 -0.000472 -0.199059
C -4.828228 1.503549 -0.182215
N -3.442110 1.804477 -0.483001
H -5.172039 1.949124 0.787983
H -5.462497 1.993199 -0.953881
O -6.437101 -0.256025 0.019679
O -4.320993 -0.882298 -0.441889
H -3.000512 -0.592539 -0.600337
C -3.202604 3.108626 -1.097522
C -3.432904 4.420153 -0.231965
H -3.836521 3.196028 -2.010403
H -2.151771 3.141350 -1.470784
C -2.477342 1.451253 0.548241
C -1.411644 0.439377 0.062847
H -3.007046 0.972517 1.405109
H -1.969704 2.346680 0.965482
O -1.883623 -0.581887 -0.623660
O -0.211219 0.575282 0.330972
O -3.301326 5.493994 -0.885972
O -3.702138 4.253922 0.991766
