32

C 8.958134 5.632553 2.399662
C 7.668731 4.959440 1.889441
N 6.603773 5.044094 2.896683
H 7.852015 3.901537 1.631686
H 7.349069 5.480942 0.962782
O 8.982207 6.463285 3.282656
O 10.003567 5.192211 1.695208
H 10.806601 5.675416 1.999003
C 5.947549 3.797458 3.287074
C 4.796864 3.448252 2.271133
H 5.495162 3.925347 4.288707
H 6.687031 2.978325 3.311288
C 6.199846 6.198752 3.325500
C 2.398570 5.339415 4.143781
H 6.647457 7.116282 2.922771
H 5.409962 6.234227 4.091077
O 1.400997 5.212104 3.539706
O 2.331054 3.887613 0.152808
H 3.032318 4.181149 0.873627
O 4.714988 2.247670 1.956072
H 3.785780 1.661580 0.740682
O 4.079932 4.443712 1.927892
H 5.229502 7.101501 0.444907
O 3.377275 5.479566 4.776739
H 4.878565 6.479430 0.733366
H 1.407010 3.889646 0.601094
O 0.030273 3.889639 1.334715
H -0.705700 4.332747 0.869993
H 0.103783 4.345304 2.197984
O 3.161071 1.558820 -0.049292
H 2.562121 0.820494 0.173517
H 2.593597 2.855075 -0.029638
