31

C 5.055164 4.813301 3.246085
C 3.598725 4.389373 2.993428
N 3.167220 4.825486 1.660594
H 2.955141 4.745463 3.827010
H 3.582158 3.282854 3.011295
O 5.079908 6.206094 3.688987
O 5.548480 4.010771 4.256403
H 6.449569 4.322560 4.472104
C 2.099129 4.045178 1.110240
C -0.265719 4.476237 1.172421
H 2.351916 2.967760 1.170342
H 1.892139 4.338887 0.064291
C 3.014084 6.283004 1.437608
C 2.080867 6.967531 2.452081
H 2.560042 6.428158 0.435185
H 4.011238 6.763669 1.463434
O 0.912426 7.244767 2.199809
O 2.591296 7.217704 3.662643
H 3.553932 6.926068 3.709073
O -1.225415 4.979976 1.950596
H -0.829449 5.288136 2.798604
O -0.407492 4.242281 -0.011853
O 5.804713 4.732818 2.076988
H 5.772240 6.635035 3.145178
H 5.121322 4.639521 1.361665
O 0.876623 4.254802 1.882243
H -0.703100 6.061137 4.568359
H -0.326324 6.545814 4.099644
O 0.821009 6.791913 -0.647460
H 0.560638 7.086788 0.255884
H 0.226023 6.029230 -0.805488
