21

C -5.147642 0.446234 0.228869
C -4.134995 1.206158 1.141626
N -3.036811 1.865104 0.474307
H -3.750908 0.466289 1.882845
H -4.725629 1.948532 1.727135
O -6.083401 -0.148507 0.767410
O -4.896785 0.519668 -1.050581
H -3.426645 0.292599 -1.404153
C -3.124855 3.261095 0.139088
C -3.595099 3.691737 -1.277560
H -2.139263 3.761360 0.276369
H -3.827678 3.767383 0.843316
C -1.781213 1.184283 0.304222
C -1.468336 0.445952 -1.026316
H -1.674931 0.405724 1.097398
H -0.928174 1.886215 0.447086
O -2.485425 0.055971 -1.779452
O -0.301416 0.200584 -1.308866
O -3.335263 4.822089 -1.672576
O -4.314737 2.832379 -1.983048
H -4.495558 1.918731 -1.516010
