20

C -4.180293 1.758828 1.464085
C -3.453916 2.101865 0.111694
N -2.086630 2.739398 0.203398
H -4.057881 2.801945 -0.497312
H -3.312464 1.180578 -0.487947
O -3.585162 2.051290 2.540703
O -5.300213 1.216174 1.284065
C -2.142984 4.134623 0.746258
C -2.568850 5.187882 -0.344360
H -1.124131 4.398524 1.097427
H -2.810634 4.118487 1.628434
C -1.067169 1.819711 0.800558
C -0.346935 1.010896 -0.341588
H -1.561629 1.185851 1.558613
H -0.311084 2.434507 1.330322
O -0.658455 1.372925 -1.516682
O 0.466836 0.140509 0.049572
O -2.655204 6.364272 0.090179
O -2.733713 4.730920 -1.510983
H -1.768986 2.804798 -0.809368
