20

C -4.347161 1.396322 2.392703
C -4.333287 1.492370 0.821456
N -3.183142 2.236544 0.187620
H -5.252737 1.999610 0.466772
H -4.312755 0.486208 0.361094
O -5.352306 0.779003 2.828023
O -3.388302 1.929961 3.020698
C -3.188205 3.694425 0.527615
C -3.952046 4.490837 -0.595527
H -2.138218 4.048704 0.566171
H -3.610434 3.826338 1.539739
C -1.880793 1.509537 0.338677
C -1.719600 0.331657 -0.691484
H -1.810949 1.184388 1.394030
H -1.068841 2.242830 0.154345
O -0.642021 -0.304984 -0.569505
O -2.663601 0.193038 -1.520032
O -4.288977 3.788082 -1.596548
O -4.100828 5.716884 -0.379092
H -3.425122 2.254896 -0.849564
