20

C -4.251001 1.260115 1.865249
C -3.873904 1.677872 0.395361
N -2.856759 2.781933 0.231899
H -4.768549 2.021771 -0.158775
H -3.461251 0.807260 -0.151817
O -3.692771 1.883143 2.813345
O -5.089682 0.323832 1.898592
C -3.381135 4.110972 0.684811
C -4.286798 4.797677 -0.404043
H -2.506576 4.766685 0.874631
H -3.896936 3.949916 1.650206
C -1.499921 2.381912 0.723761
C -0.664133 1.764479 -0.459596
H -1.621480 1.707874 1.590821
H -0.979537 3.291854 1.085861
O -1.222272 1.845698 -1.594786
O 0.458978 1.307343 -0.137955
O -4.384422 4.179734 -1.502211
O -4.772156 5.899615 -0.042656
H -2.712796 2.843006 -0.820456
