32

C -0.409334 2.185090 3.222587
C 0.985467 2.015786 3.811184
N 1.191535 2.626759 5.157796
H 1.725916 2.457252 3.112748
H 1.228190 0.938737 3.894388
O -1.276087 2.945119 3.635466
O -0.553014 1.397843 2.159844
H -1.444144 1.557355 1.769546
C 0.908499 4.155751 5.209933
C 1.909787 4.791158 6.202224
H -0.965669 4.094729 4.889894
H 1.163155 4.519946 4.184291
C 0.476825 1.903182 6.278257
C 1.374040 0.770418 6.767524
H -0.503668 1.538081 5.918859
H 0.306007 2.615447 7.101464
O 1.923698 0.783883 7.856752
O 1.541055 -0.175881 5.831227
H 2.364725 -0.698206 6.089956
O 1.589400 6.057952 6.436016
H 2.258680 6.436229 7.052669
O 2.872021 4.205832 6.669857
H 2.276730 2.444142 5.322990
O 3.976033 -0.516031 6.707385
H 3.627513 -0.247275 7.592863
H 4.696774 -1.159085 6.855867
O -0.365010 4.440005 5.606846
H -0.168322 6.754443 4.046391
H -0.226739 6.900242 3.294789
O 3.740592 1.963999 5.392531
H 4.027802 2.621090 6.061984
H 3.982947 1.073976 5.763692
